Version 4
SHEET 1 1448 932
WIRE 512 -288 368 -288
WIRE 544 -288 512 -288
WIRE 640 -288 624 -288
WIRE 768 -288 640 -288
WIRE 368 -240 368 -288
WIRE 768 -240 768 -288
WIRE 512 -208 512 -288
WIRE 640 -208 640 -288
WIRE 368 -144 368 -176
WIRE 432 -144 368 -144
WIRE 768 -144 768 -176
WIRE 768 -144 720 -144
WIRE -64 -48 -320 -48
WIRE 224 -48 -64 -48
WIRE 304 -48 224 -48
WIRE 368 -48 304 -48
WIRE 432 -48 368 -48
WIRE 880 -48 720 -48
WIRE 1040 -48 880 -48
WIRE 1104 -48 1040 -48
WIRE 1136 -48 1104 -48
WIRE 880 0 880 -48
WIRE -64 32 -64 -48
WIRE 224 32 224 -48
WIRE 1040 32 1040 -48
WIRE 304 48 304 -48
WIRE 368 48 368 -48
WIRE 432 48 368 48
WIRE 736 48 720 48
WIRE 832 48 816 48
WIRE -320 64 -320 -48
WIRE 832 64 832 48
WIRE -64 144 -64 112
WIRE 32 144 -64 144
WIRE 304 144 304 128
WIRE 432 144 304 144
WIRE 832 144 832 128
WIRE 832 144 720 144
WIRE 880 144 880 80
WIRE 880 144 832 144
WIRE 32 176 32 144
WIRE 304 176 304 144
WIRE 768 192 368 192
WIRE 880 192 880 144
WIRE 1104 224 1104 -48
WIRE 368 240 368 192
WIRE 432 240 368 240
WIRE 768 240 768 192
WIRE 768 240 720 240
WIRE -64 256 -64 144
WIRE -320 304 -320 144
WIRE -144 304 -320 304
WIRE 32 304 32 240
WIRE 32 304 -48 304
WIRE 64 304 32 304
WIRE 64 336 64 304
WIRE 432 336 368 336
WIRE 768 336 768 240
WIRE 768 336 720 336
WIRE 368 368 368 336
WIRE 768 384 768 336
WIRE 224 480 224 96
WIRE 304 480 304 256
WIRE 304 480 224 480
WIRE 368 480 368 448
WIRE 368 480 304 480
WIRE 512 480 512 400
WIRE 512 480 368 480
WIRE 640 480 640 400
WIRE 640 480 512 480
WIRE 768 480 768 448
WIRE 768 480 640 480
WIRE 880 480 880 272
WIRE 880 480 768 480
WIRE 1040 480 1040 96
WIRE 1040 480 880 480
WIRE 1104 480 1104 304
WIRE 1104 480 1040 480
WIRE 512 512 512 480
FLAG 64 336 0
FLAG 1136 -48 Vout
FLAG 512 512 0
SYMBOL voltage -320 48 R0
WINDOW 123 0 0 Left 0
WINDOW 39 24 124 Left 2
SYMATTR SpiceLine Rser=0.1m
SYMATTR InstName V1
SYMATTR Value 25
SYMBOL cap 208 32 R0
SYMATTR InstName C1
SYMATTR Value 10µ
SYMBOL ind 528 -272 R270
WINDOW 0 32 56 VTop 2
WINDOW 3 5 56 VBottom 2
SYMATTR InstName L1
SYMATTR Value 10µ
SYMBOL cap 1024 32 R0
SYMATTR InstName C4
SYMATTR Value 22µ
SYMBOL res 864 -16 R0
SYMATTR InstName R3
SYMATTR Value 1000k
SYMBOL res 864 176 R0
SYMATTR InstName R4
SYMATTR Value 90.9k
SYMBOL res 352 352 R0
SYMATTR InstName R6
SYMATTR Value 35.7k
SYMBOL cap 352 -240 R0
SYMATTR InstName C2
SYMATTR Value 0.1µ
SYMBOL cap 752 -240 R0
SYMATTR InstName C7
SYMATTR Value 0.1µ
SYMBOL cap 752 384 R0
SYMATTR InstName C8
SYMATTR Value 4.7µ
SYMBOL res 832 32 R90
WINDOW 0 0 56 VBottom 2
WINDOW 3 32 56 VTop 2
SYMATTR InstName R1
SYMATTR Value 40.2k
SYMBOL cap 816 64 R0
SYMATTR InstName C3
SYMATTR Value 820p
SYMBOL res 1088 208 R0
SYMATTR InstName R2
SYMATTR Value 9
SYMBOL PowerProducts\\LTC3115-1 576 96 R0
SYMATTR InstName U1
SYMBOL res 288 32 R0
SYMATTR InstName R5
SYMATTR Value 200k
SYMBOL res 288 160 R0
SYMATTR InstName R7
SYMATTR Value 25.5k
SYMBOL nmos -144 256 M90
SYMATTR InstName M1
SYMATTR Value BSC100N06LS3
SYMBOL res -80 16 R0
SYMATTR InstName R8
SYMATTR Value 10k
SYMBOL zener 48 240 R180
WINDOW 0 24 64 Left 2
WINDOW 3 24 0 Left 2
SYMATTR InstName D1
SYMATTR Value BZX84C10L
TEXT -80 536 Left 2 !.tran 0 10m 0 1m
