Version 4
SHEET 1 1968 960
WIRE 208 32 160 32
WIRE -208 80 -288 80
WIRE -48 80 -144 80
WIRE 64 96 16 96
WIRE 144 96 128 96
WIRE 208 96 208 32
WIRE 688 128 656 128
WIRE 800 128 688 128
WIRE -288 176 -288 80
WIRE -288 176 -384 176
WIRE -240 176 -288 176
WIRE -48 176 -48 80
WIRE -48 176 -112 176
WIRE 16 176 16 96
WIRE 48 176 16 176
WIRE 144 176 144 96
WIRE 144 176 128 176
WIRE 160 176 144 176
WIRE 688 176 688 128
WIRE 800 176 800 128
WIRE -272 208 -384 208
WIRE -240 208 -272 208
WIRE -320 240 -480 240
WIRE -240 240 -320 240
WIRE -48 240 -112 240
WIRE 208 240 208 192
WIRE 208 240 -48 240
WIRE 432 240 208 240
WIRE -480 272 -480 240
WIRE -304 272 -384 272
WIRE -240 272 -304 272
WIRE 16 272 16 176
WIRE 16 272 -112 272
WIRE 688 272 688 256
WIRE 800 272 800 240
WIRE 800 272 688 272
WIRE 64 288 16 288
WIRE 144 288 128 288
WIRE 208 288 208 240
WIRE 432 288 432 240
WIRE 688 288 688 272
WIRE -240 304 -256 304
WIRE 16 304 16 288
WIRE 16 304 -112 304
WIRE -256 336 -256 304
WIRE -240 336 -256 336
WIRE -48 336 -112 336
WIRE 688 352 656 352
WIRE 800 352 688 352
WIRE 16 368 16 304
WIRE 48 368 16 368
WIRE 144 368 144 288
WIRE 144 368 128 368
WIRE 160 368 144 368
WIRE -480 400 -480 352
WIRE -432 400 -480 400
WIRE -384 400 -384 272
WIRE -384 400 -432 400
WIRE -256 400 -256 336
WIRE -48 400 -48 336
WIRE -48 400 -256 400
WIRE 688 400 688 352
WIRE 800 400 800 352
WIRE -432 416 -432 400
WIRE 208 416 208 384
WIRE -48 432 -48 400
WIRE 208 464 160 464
WIRE 688 496 688 480
WIRE 800 496 800 464
WIRE 800 496 688 496
WIRE -288 512 -288 176
WIRE -208 512 -288 512
WIRE -48 512 -144 512
WIRE 688 512 688 496
WIRE 64 528 16 528
WIRE 144 528 128 528
WIRE 208 528 208 464
WIRE 432 528 432 368
WIRE 688 576 640 576
WIRE -288 608 -288 512
WIRE -240 608 -288 608
WIRE -48 608 -48 512
WIRE -48 608 -112 608
WIRE 16 608 16 528
WIRE 48 608 16 608
WIRE 144 608 144 528
WIRE 144 608 128 608
WIRE 160 608 144 608
WIRE 688 624 688 576
WIRE -272 640 -272 208
WIRE -240 640 -272 640
WIRE -304 672 -304 272
WIRE -240 672 -304 672
WIRE -48 672 -112 672
WIRE 208 672 208 624
WIRE 208 672 -48 672
WIRE 432 672 432 608
WIRE 432 672 208 672
WIRE -320 704 -320 240
WIRE -240 704 -320 704
WIRE 16 704 16 608
WIRE 16 704 -112 704
WIRE 64 720 16 720
WIRE 144 720 128 720
WIRE 208 720 208 672
WIRE -240 736 -256 736
WIRE 16 736 16 720
WIRE 16 736 -112 736
WIRE 688 752 688 704
WIRE -256 768 -256 736
WIRE -240 768 -256 768
WIRE -48 768 -112 768
WIRE 16 800 16 736
WIRE 48 800 16 800
WIRE 144 800 144 720
WIRE 144 800 128 800
WIRE 160 800 144 800
WIRE -256 848 -256 768
WIRE -48 848 -48 768
WIRE -48 848 -256 848
WIRE 208 848 208 816
WIRE -48 864 -48 848
FLAG 208 848 0
FLAG 160 464 +BATT
FLAG 160 32 +BATT
FLAG 688 288 0
FLAG 656 128 +BATT
FLAG -48 432 0
FLAG -48 864 0
FLAG 688 512 0
FLAG 656 352 +3V3
FLAG -384 176 +12
FLAG -384 208 +3V3
FLAG -432 416 0
FLAG 208 416 0
FLAG 688 752 0
FLAG 640 576 +12
SYMBOL voltage 688 160 R0
WINDOW 123 0 0 Left 0
WINDOW 39 0 0 Left 0
SYMATTR InstName V1
SYMATTR Value 24
SYMBOL MD_Models\\irfh8324pbf 192 768 R0
SYMATTR InstName U4
SYMBOL res 416 272 R0
SYMATTR InstName R1
SYMATTR Value 5
SYMBOL ind 416 512 R0
SYMATTR InstName L1
SYMATTR Value 2m
SYMBOL MD_Models\\irfh8324pbf 192 144 R0
SYMATTR InstName U1
SYMBOL MD_Models\\irfh8324pbf 192 336 R0
SYMATTR InstName U2
SYMBOL MD_Models\\irfh8324pbf 192 576 R0
SYMATTR InstName U3
SYMBOL cap 784 176 R0
SYMATTR InstName C1
SYMATTR Value 220µ
SYMATTR SpiceLine V=63
SYMBOL MD_Models\\IR2110S -176 256 R0
SYMATTR InstName U5
SYMBOL MD_Models\\IR2110S -176 688 R0
SYMATTR InstName U6
SYMBOL cap -64 608 R0
SYMATTR InstName C2
SYMATTR Value 0.1µ
SYMBOL cap -64 176 R0
SYMATTR InstName C3
SYMATTR Value 0.1µ
SYMBOL diode -208 96 R270
WINDOW 0 32 32 VTop 2
WINDOW 3 0 32 VBottom 2
SYMATTR InstName D1
SYMATTR Value 1N4007
SYMBOL diode -208 528 R270
WINDOW 0 32 32 VTop 2
WINDOW 3 0 32 VBottom 2
SYMATTR InstName D2
SYMATTR Value 1N4007
SYMBOL res 144 592 R90
WINDOW 0 0 56 VBottom 2
WINDOW 3 32 56 VTop 2
SYMATTR InstName R2
SYMATTR Value 10
SYMBOL res 144 784 R90
WINDOW 0 0 56 VBottom 2
WINDOW 3 32 56 VTop 2
SYMATTR InstName R3
SYMATTR Value 10
SYMBOL res 144 160 R90
WINDOW 0 0 56 VBottom 2
WINDOW 3 32 56 VTop 2
SYMATTR InstName R4
SYMATTR Value 10
SYMBOL res 144 352 R90
WINDOW 0 0 56 VBottom 2
WINDOW 3 32 56 VTop 2
SYMATTR InstName R5
SYMATTR Value 10
SYMBOL voltage 688 384 R0
WINDOW 123 0 0 Left 0
WINDOW 39 0 0 Left 0
SYMATTR InstName V3
SYMATTR Value 3.3
SYMBOL cap 784 400 R0
SYMATTR InstName C5
SYMATTR Value 0.1µ
SYMATTR SpiceLine V=10
SYMBOL voltage -480 256 R0
WINDOW 3 -373 108 Left 2
WINDOW 123 0 0 Left 0
WINDOW 39 0 0 Left 0
SYMATTR Value PULSE(0 3.3 0 1n 1n 0.11m 0.223m)
SYMATTR InstName V4
SYMBOL diode 128 80 R90
WINDOW 0 0 32 VBottom 2
WINDOW 3 32 32 VTop 2
SYMATTR InstName D3
SYMATTR Value 1N4007
SYMBOL diode 128 272 R90
WINDOW 0 0 32 VBottom 2
WINDOW 3 32 32 VTop 2
SYMATTR InstName D4
SYMATTR Value 1N4007
SYMBOL diode 128 512 R90
WINDOW 0 0 32 VBottom 2
WINDOW 3 32 32 VTop 2
SYMATTR InstName D5
SYMATTR Value 1N4007
SYMBOL diode 128 704 R90
WINDOW 0 0 32 VBottom 2
WINDOW 3 32 32 VTop 2
SYMATTR InstName D6
SYMATTR Value 1N4007
SYMBOL voltage 688 608 R0
WINDOW 123 0 0 Left 0
WINDOW 39 0 0 Left 0
SYMATTR InstName V2
SYMATTR Value 12
TEXT -528 784 Left 2 !.tran 0 10m 0 0.1m
